################################################################################################
# O script especifica todos os parâmetros necessários e utilizados para realizar a simulação do 
# cultivo de Urochloa brizantha cv. Marandu em um experimento agrícola.
################################################################################################

*MODEL INPUT FILE            B     1     1     1   999     0
*FILES              
MODEL          PRFRM048
FILEX          SPPI7902.BRX C:/DSSAT48/Brachiaria/                                                          
FILEA          SPPI7902.BRA C:/DSSAT48/Brachiaria/                                                          
FILET          SPPI7902.BRT C:/DSSAT48/Brachiaria/                                                          
SPECIES        BRFRM048.SPE C:\DSSAT48\GENOTYPE\                                                            
ECOTYPE        BRFRM048.ECO C:\DSSAT48\GENOTYPE\                                                            
CULTIVAR       BRFRM048.CUL C:\DSSAT48\GENOTYPE\                                                            
PESTS          BRFRM048.PST C:\DSSAT48\PEST\                                                                
SOILS          TX.SOL       C:\DSSAT48\SOIL\                                                                
WEATHERW       IJFT8001.WTH C:\DSSAT48\Weather\                                                             
OUTPUT         OVERVIEW
*SIMULATION CONTROL 
                   1     1     S 1980002   215 DEFAULT SIMULATION CNTR  
                   Y     Y     N     N     N     N     N     Y     M
                   M     M     E     F     S     L     R     1     P     R     2     D     0
                   R     R     R     R     R
                   N     Y     Y     1     Y     Y     Y     Y     Y     Y     N     Y     N
!AUTOMATIC MANAGEM  
                   -99     -99    0.    0.    0.    0.    0.
                  0.    0.    0. GS000 IR001   0.0 0.000
                  0.    0.    0. FE001 GS000
                  0.     0    0.
                   -99     -99    0.    0.
*EXP.DETAILS        
  1SPPI7902 BR                                                             
*TREATMENTS         
  1 1 1 0 MARANDU11299             
*CULTIVARS          
   BR SP0001 Marandu         
*FIELDS             
   AAAA0001 IJFT8001   0.0  -99.   -99  -99. 100.0   -99 -99    -99. TX111299  
    -99.0000000000  -99.0000000000   -99.000               1.0  100.   1.0 -99.0   -99   -99
*INITIAL CONDITIONS 
   BH    1979001  2000     0  1.00  1.00   0.0  8000  1.00  0.00  100.   25.
      5. 0.279 0.100 0.900
     15. 0.298 0.100 0.900
     30. 0.316 0.100 0.900
     45. 0.334 0.100 0.900
     60. 0.334 0.100 0.900
     80. 0.324 0.100 0.900
    100. 0.324 0.100 0.900
    150. 0.313 0.100 0.900
    200. 0.313 0.100 0.900
*PLANTING DETAILS   
   1980288     -99 999.0 999.0     T     R    2.    0.   2.0 2000.  150.  32.0   1.0   0.0
*IRRIGATION         
   1.000   30.   50.  100. GS000 IR001  10.0
   1980288 IR004  10.5
*FERTILIZERS        
   1981063 FE001 AP001    1.   50.  -99.  -99.  -99.  -99.   -99
   1981091 FE001 AP001    1.  100.  -99.  -99.  -99.  -99.   -99
   1981315 FE001 AP001    1.  120.  -99.  -99.  -99.  -99.   -99
   1981343 FE001 AP001    1.   30.  -99.  -99.  -99.  -99.   -99
   1982006 FE001 AP001    1.   30.  -99.  -99.  -99.  -99.   -99
   1982034 FE001 AP001    1.   30.  -99.  -99.  -99.  -99.   -99
   1982062 FE001 AP001    1.   30.  -99.  -99.  -99.  -99.   -99
   1982090 FE001 AP001    1.   20.  -99.  -99.  -99.  -99.   -99
   1982314 FE001 AP001    1.   90.  -99.  -99.  -99.  -99.   -99
   1982342 FE001 AP001    1.   50.  -99.  -99.  -99.  -99.   -99
   1983005 FE001 AP001    1.   40.  -99.  -99.  -99.  -99.   -99
   1983033 FE001 AP001    1.   30.  -99.  -99.  -99.  -99.   -99
   1983061 FE001 AP001    1.   20.  -99.  -99.  -99.  -99.   -99
   1983089 FE001 AP001    1.   10.  -99.  -99.  -99.  -99.   -99
   1983313 FE001 AP001    1.   60.  -99.  -99.  -99.  -99.   -99
   1983341 FE001 AP001    1.   40.  -99.  -99.  -99.  -99.   -99
   1984004 FE001 AP001    1.   30.  -99.  -99.  -99.  -99.   -99
   1984032 FE001 AP001    1.   20.  -99.  -99.  -99.  -99.   -99
   1984060 FE001 AP001    1.   20.  -99.  -99.  -99.  -99.   -99
   1984088 FE001 AP001    1.   10.  -99.  -99.  -99.  -99.   -99
   1984312 FE001 AP001    1.   40.  -99.  -99.  -99.  -99.   -99
   1984340 FE001 AP001    1.   30.  -99.  -99.  -99.  -99.   -99
   1985002 FE001 AP001    1.   30.  -99.  -99.  -99.  -99.   -99
   1985030 FE001 AP001    1.   10.  -99.  -99.  -99.  -99.   -99
   1985058 FE001 AP001    1.   10.  -99.  -99.  -99.  -99.   -99
   1985086 FE001 AP001    1.    5.  -99.  -99.  -99.  -99.   -99
   1985310 FE001 AP001    1.   15.  -99.  -99.  -99.  -99.   -99
   1985338 FE001 AP001    1.   30.  -99.  -99.  -99.  -99.   -99
   1986001 FE001 AP001    1.   20.  -99.  -99.  -99.  -99.   -99
   1986029 FE001 AP001    1.   20.  -99.  -99.  -99.  -99.   -99
   1986057 FE001 AP001    1.   20.  -99.  -99.  -99.  -99.   -99
   1986085 FE001 AP001    1.   15.  -99.  -99.  -99.  -99.   -99
   1986141 FE001 AP001    1.    5.  -99.  -99.  -99.  -99.   -99
   1986337 FE001 AP001    1.   15.  -99.  -99.  -99.  -99.   -99
   1986365 FE001 AP001    1.   25.  -99.  -99.  -99.  -99.   -99
   1987028 FE001 AP001    1.   10.  -99.  -99.  -99.  -99.   -99
   1987056 FE001 AP001    1.   10.  -99.  -99.  -99.  -99.   -99
   1987084 FE001 AP001    1.   10.  -99.  -99.  -99.  -99.   -99
   1987140 FE001 AP001    1.    5.  -99.  -99.  -99.  -99.   -99
   1987336 FE001 AP001    1.    5.  -99.  -99.  -99.  -99.   -99
   1987364 FE001 AP001    1.   10.  -99.  -99.  -99.  -99.   -99
*RESIDUES           
*CHEMICALS          
*TILLAGE            
*ENVIRONMENT        
*HARVEST            
   2016365 GS000     C     A  100.    0.
*SOIL               
 TX111299    INST        -99    -99. PASTURE SIMULATION BR                             
 99          Country     -33.625 -53.375 -99                                               
 -99    0.20   6.0  0.50   81.  1.00  1.00 -99   -99   -99   -99  
    5.       0.155 0.279 0.421 0.950  7.55  1.53 -99.0  24.8  30.8 -99.0  -9.0  6.56-99.00-99.00-99.00
   15.       0.173 0.298 0.427 0.885  5.77  1.52 -99.0  28.0  31.9 -99.0  -9.0  6.71-99.00-99.00-99.00
   30.       0.191 0.316 0.432 0.820  4.00  1.51 -99.0  31.1  33.0 -99.0  -9.0  6.85-99.00-99.00-99.00
   45.       0.208 0.334 0.439 0.640  2.94  1.49 -99.0  34.0  34.7 -99.0  -9.0  7.06-99.00-99.00-99.00
   60.       0.208 0.334 0.439 0.640  2.94  1.49 -99.0  34.0  34.7 -99.0  -9.0  7.06-99.00-99.00-99.00
   80.       0.199 0.324 0.435 0.410  3.47  1.50 -99.0  32.4  34.7 -99.0  -9.0  7.26-99.00-99.00-99.00
  100.       0.199 0.324 0.435 0.410  3.47  1.50 -99.0  32.4  34.7 -99.0  -9.0  7.26-99.00-99.00-99.00
  150.       0.190 0.313 0.430 0.200  4.12  1.51 -99.0  30.9  34.3 -99.0  -9.0  7.33-99.00-99.00-99.00
  200.       0.190 0.313 0.430 0.200  4.12  1.51 -99.0  30.9  34.3 -99.0  -9.0  7.33-99.00-99.00-99.00
                    
    5.-99.00 -99.0 -99.0 -99.0 -99.0 -99.0 -99.0 -99.0 -99.0 -99.0-99.00 -99.0 -99.0 -99.0 -99.0 -99.0  -99.
   15.-99.00 -99.0 -99.0 -99.0 -99.0 -99.0 -99.0 -99.0 -99.0 -99.0-99.00 -99.0 -99.0 -99.0 -99.0 -99.0  -99.
   30.-99.00 -99.0 -99.0 -99.0 -99.0 -99.0 -99.0 -99.0 -99.0 -99.0-99.00 -99.0 -99.0 -99.0 -99.0 -99.0  -99.
   45.-99.00 -99.0 -99.0 -99.0 -99.0 -99.0 -99.0 -99.0 -99.0 -99.0-99.00 -99.0 -99.0 -99.0 -99.0 -99.0  -99.
   60.-99.00 -99.0 -99.0 -99.0 -99.0 -99.0 -99.0 -99.0 -99.0 -99.0-99.00 -99.0 -99.0 -99.0 -99.0 -99.0  -99.
   80.-99.00 -99.0 -99.0 -99.0 -99.0 -99.0 -99.0 -99.0 -99.0 -99.0-99.00 -99.0 -99.0 -99.0 -99.0 -99.0  -99.
  100.-99.00 -99.0 -99.0 -99.0 -99.0 -99.0 -99.0 -99.0 -99.0 -99.0-99.00 -99.0 -99.0 -99.0 -99.0 -99.0  -99.
  150.-99.00 -99.0 -99.0 -99.0 -99.0 -99.0 -99.0 -99.0 -99.0 -99.0-99.00 -99.0 -99.0 -99.0 -99.0 -99.0  -99.
  200.-99.00 -99.0 -99.0 -99.0 -99.0 -99.0 -99.0 -99.0 -99.0 -99.0-99.00 -99.0 -99.0 -99.0 -99.0 -99.0  -99.
                    
    5.-99.00-99.00-99.00-99.00
   15.-99.00-99.00-99.00-99.00
   30.-99.00-99.00-99.00-99.00
   45.-99.00-99.00-99.00-99.00
   60.-99.00-99.00-99.00-99.00
   80.-99.00-99.00-99.00-99.00
  100.-99.00-99.00-99.00-99.00
  150.-99.00-99.00-99.00-99.00
  200.-99.00-99.00-99.00-99.00
*CULTIVAR           
SP0001 Marandu          G00001 12.50 0.200 99.00 10.00 18.00 33.00 25.00 1.800 190.0   2.0  0.01 0.020 15.00  2.05 20.00  78.0 0.115 0.035
