*EXP.DETAILS: SPPI7902BR                                                             

*FILES
@N  EXP.DATA    AFILE        ADIR
  1 EXP         SPPI7902.BRA C:/DSSAT48/Brachiaria/                                                          
@N  SPECIES     SPFILE       SPDIR
  1 SPE         BRFRM048.SPE C:\DSSAT48\GENOTYPE\                                                            
@N  ECOTYPE     EFILE        EDIR
  1 ECO         BRFRM048.ECO C:\DSSAT48\GENOTYPE\                                                            
@N  CULTIVAR    CFILE        CDIR
  1 CUL         BRFRM048.CUL C:\DSSAT48\GENOTYPE\                                                            
@N  SOIL        SFILE        SDIR
  1 SOIL        TX.SOL       C:\DSSAT48\SOIL\                                                                
@N  WEATHER     WFILE        WDIR
  1 WEATH       IJFT8001.WTH C:\DSSAT48\Weather\                                                             

*SIMULATION CONTROL
@N  GENERAL     NYERS NREPS START   SDATE RSEED SNAME.................... MODEL...
  1 GE              1     1     S 1980002   215 DEFAULT SIMULATION CNTR   PRFRM048
@N  OPTIONS     WATER NITRO SYMBI PHOSP POTAS DISES  CHEM  TILL   CO2
  1 OP              Y     Y     N     N     N     N     N     Y     M
@N  METHODS     WTHER INCON LIGHT EVAPO INFIL PHOTO HYDRO NSWIT SOMDY MESEV MESOL METMP MEGHG
  1 ME              M     M     E     F     S     L     R     1     P     R     2     D     0
@N  MANAGEMENT  PLANT IRRIG FERTI RESID HARVS
  1 MA              R     R     R     R     R
@N  OUTPUTS     FNAME OVVEW SUMRY FROPT GROUT CAOUT WAOUT NIOUT MIOUT DIOUT  LONG CHOUT OPOUT
  1 OU              N     Y     Y     1     Y     Y     Y     Y     Y     Y     N     Y     N

!AUTOMATIC MANAGEM
@N  PLANTING      PFRST   PLAST PH2OL PH2OU PH2OD PSTMX PSTMN
  1 PL              -99     -99    0.    0.    0.    0.    0.
@N  IRRIGATION  IMDEP ITHRL ITHRU IROFF IMETH IRAMT IREFF
  1 IR             0.    0.    0. GS000 IR001   0.0 0.000
@N  NITROGEN    NMDEP NMTHR NAMNT NCODE NAOFF
  1 NI             0.    0.    0. FE001 GS000
@N  RESIDUES    RIPCN RTIME RIDEP
  1 RE             0.     0    0.
@N  HARVEST     HFRST   HLAST HPCNP HRCNR
  1 HA            -99     -99    0.    0.

*TREATMENTS
@N   R O C TNAME....................  CU  FL  SA  IC  MP  MI  MF  MR  MC  MT  ME  MH  SM
  1  1 1 0 MARANDU11299                1   1   0   1   1   1   1   0   0   0   0   1   1

*CULTIVARS
@C  CR INGENO CNAME
  1 BR SP0001 Marandu         

*FIELDS
@L  ID_FIELD WSTA....  FLSA  FLOB  FLDT  FLDD  FLDS  FLST SLTX   SLDP ID_SOIL
  1 AAAA0001 IJFT8001   0.0  -99.   -99  -99.  100.   -99 -99    -99. TX111299  
@L             XCRD            YCRD      ELEV              AREA  SLEN  FLWR  SLAS PRMGT
  1       -99.00000       -99.00000    -99.00               1.0  100.   1.0 -99.0   -99   -99

*INITIAL CONDITIONS
@C  PCR     ICDAT  ICRT  ICND  ICRN  ICRE  ICWD ICRES ICREN ICREP ICRIP ICRID
  1 BH    1979001  2000     0  1.00  1.00   0.0  8000  1.00  0.00  100.   25.
@C   ICBL  SH2O  SNH4  SNO3
  1    5. 0.279   0.1   0.9
  1   15. 0.298   0.1   0.9
  1   30. 0.316   0.1   0.9
  1   45. 0.334   0.1   0.9
  1   60. 0.334   0.1   0.9
  1   80. 0.324   0.1   0.9
  1  100. 0.324   0.1   0.9
  1  150. 0.313   0.1   0.9
  1  200. 0.313   0.1   0.9

*PLANTING DETAILS
@P    PDATE   EDATE  PPOP  PPOE  PLME  PLDS  PLRS  PLRD  PLDP  PLWT  PAGE  PENV  PLPH  SPRL
  1 1980288     -99 999.0 999.0     T     R    2.    0.   2.0 2000.  150.  32.0   1.0   0.0

*IRRIGATION
@I   IEFF  IDEP  ITHR  IEPT  IOFF  IAME  IAMT
  1 1.000   30.   50.  100. GS000 IR001  10.0
@I    IDATE  IROP IRVAL
  1 1980288 IR004  10.5

*FERTILIZERS
@F    FDATE  FMCD  FACD  FDEP  FAMN  FAMP  FAMK  FAMC  FAMO  FOCD
  1 1981063 FE001 AP001    1.   50.  -99.  -99.  -99.  -99.   -99
  1 1981091 FE001 AP001    1.  100.  -99.  -99.  -99.  -99.   -99
  1 1981315 FE001 AP001    1.  120.  -99.  -99.  -99.  -99.   -99
  1 1981343 FE001 AP001    1.   30.  -99.  -99.  -99.  -99.   -99
  1 1982006 FE001 AP001    1.   30.  -99.  -99.  -99.  -99.   -99
  1 1982034 FE001 AP001    1.   30.  -99.  -99.  -99.  -99.   -99
  1 1982062 FE001 AP001    1.   30.  -99.  -99.  -99.  -99.   -99
  1 1982090 FE001 AP001    1.   20.  -99.  -99.  -99.  -99.   -99
  1 1982314 FE001 AP001    1.   90.  -99.  -99.  -99.  -99.   -99
  1 1982342 FE001 AP001    1.   50.  -99.  -99.  -99.  -99.   -99
  1 1983005 FE001 AP001    1.   40.  -99.  -99.  -99.  -99.   -99
  1 1983033 FE001 AP001    1.   30.  -99.  -99.  -99.  -99.   -99
  1 1983061 FE001 AP001    1.   20.  -99.  -99.  -99.  -99.   -99
  1 1983089 FE001 AP001    1.   10.  -99.  -99.  -99.  -99.   -99
  1 1983313 FE001 AP001    1.   60.  -99.  -99.  -99.  -99.   -99
  1 1983341 FE001 AP001    1.   40.  -99.  -99.  -99.  -99.   -99
  1 1984004 FE001 AP001    1.   30.  -99.  -99.  -99.  -99.   -99
  1 1984032 FE001 AP001    1.   20.  -99.  -99.  -99.  -99.   -99
  1 1984060 FE001 AP001    1.   20.  -99.  -99.  -99.  -99.   -99
  1 1984088 FE001 AP001    1.   10.  -99.  -99.  -99.  -99.   -99
  1 1984312 FE001 AP001    1.   40.  -99.  -99.  -99.  -99.   -99
  1 1984340 FE001 AP001    1.   30.  -99.  -99.  -99.  -99.   -99
  1 1985002 FE001 AP001    1.   30.  -99.  -99.  -99.  -99.   -99
  1 1985030 FE001 AP001    1.   10.  -99.  -99.  -99.  -99.   -99
  1 1985058 FE001 AP001    1.   10.  -99.  -99.  -99.  -99.   -99
  1 1985086 FE001 AP001    1.    5.  -99.  -99.  -99.  -99.   -99
  1 1985310 FE001 AP001    1.   15.  -99.  -99.  -99.  -99.   -99
  1 1985338 FE001 AP001    1.   30.  -99.  -99.  -99.  -99.   -99
  1 1986001 FE001 AP001    1.   20.  -99.  -99.  -99.  -99.   -99
  1 1986029 FE001 AP001    1.   20.  -99.  -99.  -99.  -99.   -99
  1 1986057 FE001 AP001    1.   20.  -99.  -99.  -99.  -99.   -99
  1 1986085 FE001 AP001    1.   15.  -99.  -99.  -99.  -99.   -99
  1 1986141 FE001 AP001    1.    5.  -99.  -99.  -99.  -99.   -99
  1 1986337 FE001 AP001    1.   15.  -99.  -99.  -99.  -99.   -99
  1 1986365 FE001 AP001    1.   25.  -99.  -99.  -99.  -99.   -99
  1 1987028 FE001 AP001    1.   10.  -99.  -99.  -99.  -99.   -99
  1 1987056 FE001 AP001    1.   10.  -99.  -99.  -99.  -99.   -99
  1 1987084 FE001 AP001    1.   10.  -99.  -99.  -99.  -99.   -99
  1 1987140 FE001 AP001    1.    5.  -99.  -99.  -99.  -99.   -99
  1 1987336 FE001 AP001    1.    5.  -99.  -99.  -99.  -99.   -99
  1 1987364 FE001 AP001    1.   10.  -99.  -99.  -99.  -99.   -99

*RESIDUES
@R    RDATE  RCOD  RAMT  RESN  RESP  RESK  RINP  RDEP  RMET

*CHEMICALS
@C    CDATE CHCOD CHAMT  CHME CHDEP   CHT

*TILLAGE
@T    TDATE TIMPL  TDEP

*ENVIRONMENT
@E    ODATE  EDAY  ERAD  EMAX  EMIN ERAIN  ECO2  EDEW EWIND

*HARVEST
@H    HDATE  HSTG  HCOM HSIZE   HPC  HBPC
  1 2016365 GS000     C     A  100.    0.
